@<TRIPOS>MOLECULE
MOL
   65    69     1     0     0
SMALL
bcc


@<TRIPOS>ATOM
      1 S          134.2030   113.0510   128.6530 s6         1 MOL       1.464900
      2 F          126.9060   115.1420   138.0160 f          1 MOL      -0.227300
      3 F1         127.4950   115.2420   135.9290 f          1 MOL      -0.227300
      4 F2         126.2170   116.7820   136.7820 f          1 MOL      -0.227300
      5 O          132.8160   112.5710   128.6930 o          1 MOL      -0.649800
      6 O1         135.0350   112.8080   127.4690 o          1 MOL      -0.649800
      7 O2         136.5350   114.4370   130.5010 oh         1 MOL      -0.631800
      8 O3         130.9420   119.6010   131.7330 o          1 MOL      -0.594100
      9 N          134.1860   114.7590   128.9040 nh         1 MOL      -0.780500
     10 N1         128.6570   117.0350   138.8290 np         1 MOL      -0.535500
     11 N2         129.5240   116.0280   138.0770 np         1 MOL      -0.535500
     12 N3         130.7010   117.8640   133.1910 n          1 MOL      -0.454100
     13 N4         130.1970   115.5010   131.7090 nh         1 MOL      -0.648000
     14 C          135.1050   112.4920   130.1320 c3         1 MOL      -0.317600
     15 C1         136.5360   113.0530   130.2060 c3         1 MOL       0.157400
     16 C2         130.1670   114.0630   131.9920 c3         1 MOL       0.178800
     17 C3         128.9280   116.0190   131.1900 c3         1 MOL       0.178800
     18 C4         129.1760   120.1700   135.7460 ca         1 MOL      -0.107000
     19 C5         129.8380   119.7650   134.5700 ca         1 MOL      -0.140000
     20 C6         133.5480   116.9870   129.5320 ca         1 MOL      -0.202000
     21 C7         128.7440   119.2110   136.6850 ca         1 MOL      -0.138000
     22 C8         132.7570   117.8760   130.2780 ca         1 MOL      -0.039000
     23 C9         128.9940   113.6970   132.9130 c3         1 MOL      -0.045400
     24 C10        127.7600   115.6760   132.1210 c3         1 MOL      -0.045400
     25 C11        126.9560   113.3310   131.3050 cx         1 MOL      -0.125400
     26 C12        126.3610   113.5240   132.6820 cx         1 MOL      -0.125400
     27 C13        132.1560   115.1450   130.2670 ca         1 MOL      -0.242000
     28 C14        129.6290   117.4430   135.2800 ca         1 MOL      -0.138000
     29 C15        131.0460   118.4050   132.0170 c          1 MOL       0.693700
     30 C16        133.2810   115.6070   129.5530 ca         1 MOL       0.221600
     31 C17        130.0600   118.3900   134.3330 ca         1 MOL       0.069600
     32 C18        131.3310   116.0210   131.0240 ca         1 MOL       0.192600
     33 C19        128.9650   117.8360   136.4560 ca         1 MOL      -0.071300
     34 C20        131.6910   117.4100   131.0790 ca         1 MOL      -0.194600
     35 C21        127.2410   115.9640   137.0200 c3         1 MOL       0.660900
     36 C22        128.4800   116.7820   137.4090 cx         1 MOL       0.262700
     37 C23        127.6750   114.1780   132.3290 cx         1 MOL      -0.118000
     38 H1         137.4770   114.7700   130.5420 ho         1 MOL       0.421000
     39 H2         134.9730   115.2330   128.5100 hn         1 MOL       0.472800
     40 H3         129.0460   117.9010   139.1420 hn         1 MOL       0.387300
     41 H4         129.4130   115.0470   138.2390 hn         1 MOL       0.387300
     42 H5         130.9450   116.8980   133.2760 hn         1 MOL       0.333500
     43 H6         135.1540   111.4930   130.1180 h1         1 MOL       0.128200
     44 H7         134.6030   112.7900   130.9440 h1         1 MOL       0.128200
     45 H8         137.0390   112.5680   130.9220 h1         1 MOL       0.051200
     46 H9         136.9880   112.9090   129.3260 h1         1 MOL       0.051200
     47 H10        131.0240   113.8010   132.4370 h1         1 MOL       0.047450
     48 H11        130.0720   113.5640   131.1310 h1         1 MOL       0.047450
     49 H12        128.7560   115.6170   130.2910 h1         1 MOL       0.047450
     50 H13        128.9940   117.0130   131.1030 h1         1 MOL       0.047450
     51 H14        129.0120   121.1420   135.9150 ha         1 MOL       0.141000
     52 H15        130.1490   120.4460   133.9070 ha         1 MOL       0.177000
     53 H16        134.3060   117.3380   128.9820 ha         1 MOL       0.142000
     54 H17        128.2780   119.5070   137.5190 ha         1 MOL       0.146000
     55 H18        132.9520   118.8560   130.2410 ha         1 MOL       0.152000
     56 H19        129.1330   114.1260   133.8060 hc         1 MOL       0.053700
     57 H20        128.9610   112.7040   133.0220 hc         1 MOL       0.053700
     58 H21        126.9070   116.0010   131.7130 hc         1 MOL       0.053700
     59 H22        127.9000   116.1240   133.0040 hc         1 MOL       0.053700
     60 H23        126.5290   113.7620   130.5100 hc         1 MOL       0.072200
     61 H24        127.3290   112.4410   131.0410 hc         1 MOL       0.072200
     62 H25        126.3400   112.7620   133.3290 hc         1 MOL       0.072200
     63 H26        125.5400   114.0830   132.7980 hc         1 MOL       0.072200
     64 H27        131.9320   114.1710   130.2400 ha         1 MOL       0.170000
     65 H28        129.7980   116.4720   135.1140 ha         1 MOL       0.147000
@<TRIPOS>BOND
     1     1     5 2   
     2     1     6 2   
     3     1     9 1   
     4     1    14 1   
     5     2    35 1   
     6     3    35 1   
     7     4    35 1   
     8     7    15 1   
     9     7    38 1   
    10     8    29 2   
    11     9    30 1   
    12     9    39 1   
    13    10    11 1   
    14    10    36 1   
    15    10    40 1   
    16    11    36 1   
    17    11    41 1   
    18    12    29 1   
    19    12    31 1   
    20    12    42 1   
    21    13    16 1   
    22    13    17 1   
    23    13    32 1   
    24    14    15 1   
    25    14    43 1   
    26    14    44 1   
    27    15    45 1   
    28    15    46 1   
    29    16    23 1   
    30    16    47 1   
    31    16    48 1   
    32    17    24 1   
    33    17    49 1   
    34    17    50 1   
    35    18    19 ar  
    36    18    21 ar  
    37    18    51 1   
    38    19    31 ar  
    39    19    52 1   
    40    20    22 ar  
    41    20    30 ar  
    42    20    53 1   
    43    21    33 ar  
    44    21    54 1   
    45    22    34 ar  
    46    22    55 1   
    47    23    37 1   
    48    23    56 1   
    49    23    57 1   
    50    24    37 1   
    51    24    58 1   
    52    24    59 1   
    53    25    26 1   
    54    25    37 1   
    55    25    60 1   
    56    25    61 1   
    57    26    37 1   
    58    26    62 1   
    59    26    63 1   
    60    27    30 ar  
    61    27    32 ar  
    62    27    64 1   
    63    28    31 ar  
    64    28    33 ar  
    65    28    65 1   
    66    29    34 1   
    67    32    34 ar  
    68    33    36 1   
    69    35    36 1   
@<TRIPOS>SUBSTRUCTURE
     1 MOL         1 TEMP              0 ****  ****    0 ROOT
